<edges>
    <edge id="N2J" from="N" to="J0" priority="1" numLanes="1" speed="13.9"/>
    <edge id="S2J" from="S" to="J0" priority="1" numLanes="1" speed="13.9"/>
    <edge id="E2J" from="E" to="J0" priority="1" numLanes="1" speed="13.9"/>
    <edge id="W2J" from="W" to="J0" priority="1" numLanes="1" speed="13.9"/>

    <edge id="J2N" from="J0" to="N" priority="1" numLanes="1" speed="13.9"/>
    <edge id="J2S" from="J0" to="S" priority="1" numLanes="1" speed="13.9"/>
    <edge id="J2E" from="J0" to="E" priority="1" numLanes="1" speed="13.9"/>
    <edge id="J2W" from="J0" to="W" priority="1" numLanes="1" speed="13.9"/>
</edges>
