<additional>
    <tlLogic id="tls0" type="static" programID="0" offset="0">
        <phase duration="30" state="GGrr"/>
        <phase duration="3"  state="yyrr"/>
        <phase duration="1"  state="rrrr"/>

        <phase duration="30" state="rrGG"/>
        <phase duration="3"  state="rryy"/>
        <phase duration="1"  state="rrrr"/>
    </tlLogic>
</additional>
